LTspice 24.0.12 for Windows
Circuit: * C:\Users\admin\Documents\team-2\repo\remote-submersible\simulations\electromagnet.asc
Start Time: Thu Aug 29 18:16:33 2024
solver = Normal
Maximum thread count: 12
tnom = 27
temp = 27
method = modified trap
Limiting rise time of source v1 to 0.05
Limiting fall time of source v1 to 0.05
Limiting rise time of source v4 to 0.05
Limiting fall time of source v4 to 0.05
WARNING: Node NC_02 is floating.
WARNING: Node NC_04 is floating.

WARNING: Less than two connections to node n007.  This node is used by m3.
WARNING: Less than two connections to node n004.  This node is used by d2.
WARNING: Less than two connections to node nc_01.  This node is used by l2.
WARNING: Less than two connections to node nc_02.  This node is used by l2.
WARNING: Less than two connections to node nc_03.  This node is used by r3.
WARNING: Less than two connections to node nc_04.  This node is used by r3.
Direct Newton iteration for .op point succeeded.
Total elapsed time: 0.168 seconds.

