LTspice 24.0.12 for Windows
Circuit: * C:\Users\admin\Documents\team-2\repo\remote-submersible\simulations\electromagnet.asc
Start Time: Tue Aug 20 11:01:46 2024
solver = Normal
Maximum thread count: 12
tnom = 27
temp = 27
method = modified trap
Limiting rise time of source v1 to 0.05
Limiting fall time of source v1 to 0.05
Limiting rise time of source v4 to 0.05
Limiting fall time of source v4 to 0.05
Direct Newton iteration for .op point succeeded.
Total elapsed time: 0.209 seconds.

